BEGIN OPTIONS
END OPTIONS

BEGIN DIMENSIONS
MAXBOUND 2
END DIMENSIONS

BEGIN PERIOD 1
1 3 3 5000.0
1 7 8 -3000.0
END PERIOD
