BEGIN OPTIONS
BUDGET FILEOUT ex1_steady.ccf
HEAD FILEOUT ex1_steady.hed
END OPTIONS

BEGIN PERIOD 1
SAVE HEAD ALL
SAVE BUDGET ALL
END PERIOD

