BEGIN OPTIONS                           
 PRINT_OPTION SUMMARY                   
 COMPLEXITY MODERATE                    
END OPTIONS                             
