BEGIN GRIDDATA
STRT LAYERED
CONSTANT 20.0
END GRIDDATA

