BEGIN OPTIONS
LENGTH_UNITS METERS
END OPTIONS

BEGIN DIMENSIONS
NLAY 1
NROW 50
NCOL 50
END DIMENSIONS

BEGIN GRIDDATA
DELR
CONSTANT 20.0
DELC
CONSTANT 20.0
TOP LAYERED
CONSTANT 10.0
BOTM LAYERED
CONSTANT 0.0
IDOMAIN
CONSTANT 1
END GRIDDATA
