BEGIN OPTIONS
SAVE_FLOWS
END OPTIONS

BEGIN GRIDDATA
ICELLTYPE
CONSTANT 0
K LAYERED
CONSTANT 200.0
END GRIDDATA

