BEGIN OPTIONS
TIME_UNITS DAYS
END OPTIONS

BEGIN DIMENSIONS
NPER 31
END DIMENSIONS

BEGIN PERIODDATA
1.0 1 1.0
1.0 1 1.0
1.0 1 1.0
1.0 1 1.0
1.0 1 1.0
1.0 1 1.0
1.0 1 1.0
1.0 1 1.0
1.0 1 1.0
1.0 1 1.0
1.0 1 1.0
1.0 1 1.0
1.0 1 1.0
1.0 1 1.0
1.0 1 1.0
1.0 1 1.0
1.0 1 1.0
1.0 1 1.0
1.0 1 1.0
1.0 1 1.0
1.0 1 1.0
1.0 1 1.0
1.0 1 1.0
1.0 1 1.0
1.0 1 1.0
1.0 1 1.0
1.0 1 1.0
1.0 1 1.0
1.0 1 1.0
1.0 1 1.0
1.0 1 1.0
END PERIODDATA

