BEGIN OPTIONS
END OPTIONS

BEGIN DIMENSIONS
MAXBOUND 2
END DIMENSIONS

BEGIN PERIOD 2
1 12 13 5000.0
1 31 39 -3000.0
END PERIOD
