BEGIN OPTIONS
SAVE_FLOWS
END OPTIONS

BEGIN GRIDDATA
ICELLTYPE
CONSTANT 0
K LAYERED
CONSTANT 25.0
END GRIDDATA

