BEGIN OPTIONS
SAVE_FLOWS
END OPTIONS

BEGIN GRIDDATA
ICONVERT
CONSTANT 0
SS LAYERED
CONSTANT 0.003
END GRIDDATA

BEGIN PERIOD 1
STEADY-STATE
END PERIOD

BEGIN PERIOD 2
TRANSIENT
END PERIOD

