BEGIN OPTIONS
END OPTIONS

BEGIN DIMENSIONS
MAXBOUND 100
END DIMENSIONS

BEGIN PERIOD 1
1 1 1 40.0
1 2 1 40.0
1 3 1 40.0
1 4 1 40.0
1 5 1 40.0
1 6 1 40.0
1 7 1 40.0
1 8 1 40.0
1 9 1 40.0
1 10 1 40.0
1 11 1 40.0
1 12 1 40.0
1 13 1 40.0
1 14 1 40.0
1 15 1 40.0
1 16 1 40.0
1 17 1 40.0
1 18 1 40.0
1 19 1 40.0
1 20 1 40.0
1 21 1 40.0
1 22 1 40.0
1 23 1 40.0
1 24 1 40.0
1 25 1 40.0
1 26 1 40.0
1 27 1 40.0
1 28 1 40.0
1 29 1 40.0
1 30 1 40.0
1 31 1 40.0
1 32 1 40.0
1 33 1 40.0
1 34 1 40.0
1 35 1 40.0
1 36 1 40.0
1 37 1 40.0
1 38 1 40.0
1 39 1 40.0
1 40 1 40.0
1 41 1 40.0
1 42 1 40.0
1 43 1 40.0
1 44 1 40.0
1 45 1 40.0
1 46 1 40.0
1 47 1 40.0
1 48 1 40.0
1 49 1 40.0
1 50 1 40.0
1 1 50 60.0
1 2 50 60.0
1 3 50 60.0
1 4 50 60.0
1 5 50 60.0
1 6 50 60.0
1 7 50 60.0
1 8 50 60.0
1 9 50 60.0
1 10 50 60.0
1 11 50 60.0
1 12 50 60.0
1 13 50 60.0
1 14 50 60.0
1 15 50 60.0
1 16 50 60.0
1 17 50 60.0
1 18 50 60.0
1 19 50 60.0
1 20 50 60.0
1 21 50 60.0
1 22 50 60.0
1 23 50 60.0
1 24 50 60.0
1 25 50 60.0
1 26 50 60.0
1 27 50 60.0
1 28 50 60.0
1 29 50 60.0
1 30 50 60.0
1 31 50 60.0
1 32 50 60.0
1 33 50 60.0
1 34 50 60.0
1 35 50 60.0
1 36 50 60.0
1 37 50 60.0
1 38 50 60.0
1 39 50 60.0
1 40 50 60.0
1 41 50 60.0
1 42 50 60.0
1 43 50 60.0
1 44 50 60.0
1 45 50 60.0
1 46 50 60.0
1 47 50 60.0
1 48 50 60.0
1 49 50 60.0
1 50 50 60.0
END PERIOD
